* Drift Scale Test Test Problem 2/04 -- revised 12/03 for v2.32G OMP & 1/10/14 for heat capacities  
ROCKS----1----*----2----*----3----*----4----*----5----*----6----*----7----*----8
msw33    2 2358.    0.1425    0.6570E-170.6570E-170.6570E-17 1.675      985.
                        1.164     0.2000
    7     0.2830    0.1200     1.000               1.000
   10     0.2830    0.1200    0.6170E-05 .138      1.000
msw34    2 2466.    0.1287    0.1770E-180.1770E-180.1770E-18 2.074      985.
                        1.419     0.2000
    7     0.3170    0.1900     1.000               1.000
   10     0.3170    0.1900    0.8450E-05 .091      1.000
msw35    2 2325.    0.1486    0.4480E-170.4480E-170.4480E-17 1.890      985.
                        1.278     0.2000
    7     0.2160    0.1200     1.000               1.000
   10     0.2160    0.1200    0.1080E-04 .216      1.000
fsw33    2 2358.    0.87879   0.7762E-120.7762E-120.7762E-12 1.110e-3   985.
                    0.7680E-03    0.0041
    7     0.6330    0.1000E-01 1.000               1.000
   10     0.6330    0.1000E-010.1590E-02 0.01      1.000    0.6000
fsw34    2 2466.     0.850    0.3311E-120.3311E-120.3311E-12 1.81e-3    985.
                    0.1240E-02    0.0060
    7     0.6330    0.1000E-01 1.000               1.000
   10     0.6330    0.1000E-010.1040E-03 0.01      1.000    0.5690      
fsw35    2 2325.    0.87273   0.9120E-120.9120E-120.9120E-12 1.99e-3    985.
                    0.1340E-02    0.0067
    7     0.6330    0.1000E-01 1.000               1.000
   10     0.6330    0.1000E-010.1020E-03 0.01      1.000    0.5690
fconc    2 2466.     1.000    0.3311E-120.3311E-120.3311E-12 1.81e-3   916.9
                    0.934e-3     0.0060
    7     0.6330    0.1000E-01 1.000               1.000
   10     0.6330    0.1000E-010.1040E-03 0.01      1.000    0.5690      
mconc    2 2466.    0.1287    0.1770E-180.1770E-180.1770E-18 2.074     916.9
                        0.934     0.2000
    7     0.3170    0.1900     1.000               1.000
   10     0.3170    0.1900    0.8450E-05 .091      1.000
fwall    2 2466.     1.000    0.3311E-100.3311E-100.3311E-10 1.81e-3    985.
                    0.934e-3     0.0060
    7     0.6330    0.1000E-01 1.000               1.000
   10     0.6330    0.1000E-010.1040E-03 0.01      1.000    0.5690
mwall    2 2466.    0.1287    0.1770E-180.1770E-180.1770E-18 2.074      985.
                        1.419     0.2000
    7     0.3170    0.1900     1.000               1.000
   10     0.3170    0.1900    0.8450E-05 .091      1.000
fwalc    2 2466.     1.000    0.3311E-120.3311E-120.3311E-12 .934e-3   916.9
                    0.934e-3      0.0060
    7     0.6330    0.1000E-01 1.000               1.000
   10     0.6330    0.1000E-010.1040E-03 0.01      1.000    0.5690
mwalc    2 2466.    0.1287    0.1770E-180.1770E-180.1770E-18 2.074     916.9
                        0.934     0.2000
    7     0.3170    0.1900     1.000               1.000
   10     0.3170    0.1900    0.8450E-05 .091      1.000
drift    2  1.2     1.0000    1.e-09     1.e-09   1.e-09     10.568    0.001
                     10.568         1.00
    1     0.0000    0.0000     1.000     1.000
    1        0.0     0.000     1.000
obser    2 2466.    1.0000    1.e-09     1.e-09   1.e-09     0.0447    10000.0
                     0.0447         1.00
    1      0.010     0.000     1.000     1.000
    1        0.0     0.999     1.000
fwin1    2 2466.     0.990    1.e-10     1.e-10   1.e-10     1.81e-3    985.
                    0.1240E-02    0.700
    7     0.6330    0.1000E-01 1.000               1.000
   10     0.6330    0.1000E-010.1040E-03 0.01      1.000    0.5690
mwin1    2 2466.    0.1287    0.1770E-160.1770E-160.1770E-16 2.074      985.
                        1.419     0.2000
    7     0.3170    0.1900     1.000               1.000
   10     0.3170    0.1900    0.8450E-05 .091      1.000
fwin2    2 2466.     0.990    1.e-10     1.e-10   1.e-10     1.81e-3    985.
                    0.1240E-02    0.700
    7     0.6330    0.1000E-01 1.000               1.000
   10     0.6330    0.1000E-010.1040E-03 0.01      1.000    0.5690      
mwin2    2 2466.    0.1287    0.1770E-160.1770E-160.1770E-16 2.074      985.
                        1.419     0.2000
    7     0.3170    0.1900     1.000               1.000
   10     0.3170    0.1900    0.8450E-05 .091      1.000
insul    2 1200.    0.1287    1.e-10     1.e-10   1.e-10     0.0447    835.0
                        0.0447    0.2000
    7     0.2915    0.1900     1.000               1.000
   10     0.2915    0.1900    0.3862E-05 0.01      1.000
alcov    2 2530.    1.0000    1.e-9      1.e-9    1.e-9      0.0447    10000.
                     0.0447         1.00
    1      0.010     0.000     1.000     1.000
    1        0.0     0.999     1.000
ftbou    2 2358.    0.87879   0.7762E-120.7762E-120.7762E-12 1.110e-3   985.
                    0.7680E-03    0.0041
    7     0.6330    0.1000E-01 1.000               1.000
   10     0.6330    0.1000E-010.1590E-02 0.01      1.000    0.6000
mtbou    2 2358.    0.1425    0.6570E-170.6570E-170.6570E-17 1.675      985.
                        1.164     0.2000
    7     0.2830    0.1200     1.000               1.000
   10     0.2830    0.1200    0.6170E-05 .138      1.000
fbbou    2 2325.    0.87273    0.9120E-120.9120E-120.9120E-12 1.99e-3    985.
                    0.1340E-02    0.0067
    7     0.6330    0.1000E-01 1.000               1.000
   10     0.6330    0.1000E-010.1020E-03 0.01      1.000    0.5690
mbbou    2 2325.    0.1486    0.4480E-170.4480E-170.4480E-17 1.890      985.
                        1.278     0.2000
    7     0.2160    0.1200     1.000               1.000
   10     0.2160    0.1200    0.1080E-04 .216      1.000

REACT6789012345678-2----*----3----*----4----*----5----*----6----*----7----*----8
0002110600020000000

START----1 MOP: 123456789*123456789*1234 ---*----5----*----6----*----7----*----8
PARAM           123456789012345678901234
   49999    9999000000000022000401205         1.80
 0.00000E00.315569e8    1.e+01  8.64E4  dummy      -9.806650
 1.0000e-4
 0.9044902665191E+05 0.1030000000000E+02 0.2500000000000E+02

TIMES
   1
0.315569e8

DIFFU----1----*----2----*----3----*----4----*----5----*----6----*----7----*----8
   2.13e-5    1.0e-8
   2.13e-5    1.0e-8

MULTI
    2    3    2    8

ENDCY

